cases/transmission/generated_cases/hourly_case_24.m
%% MATPOWER Case Format : Version 2
function mpc = case2383wp
mpc.version = '2';

%%-----  Power Flow Data  -----%%
%% system MVA base
mpc.baseMVA = 100;
%% bus data
%    bus_i    type    Pd    Qd    Gs    Bs    area    Vm    Va    baseKV    zone    Vmax    Vmin
mpc.bus = [
	1	1	0.0	0.0	0.0	0.0	1	1.029156925247839	3.2858121603613517	220.0	1	1.11	0.95				
	2	1	0.0	0.0	0.0	0.0	1	1.0120801095341048	-1.3347322826574928	220.0	1	1.11	0.95				
	3	1	0.0	0.0	0.0	0.0	1	1.0323798604173602	-9.724645504078785	220.0	1	1.11	0.95				
	4	1	0.0	0.0	0.0	0.0	1	1.0234071145252255	-1.0125418509930382	220.0	1	1.11	0.95				
	5	1	0.0	0.0	0.0	0.0	1	1.036429189671838	-3.444772000389811	220.0	1	1.11	0.95				
	6	1	0.0	0.0	0.0	0.0	1	1.0063599566648749	-0.48996288143092587	400.0	1	1.05	0.95				
	7	1	0.0	0.0	0.0	0.0	1	1.0335958963801382	-3.9268342277351853	220.0	1	1.11	0.95				
	8	1	0.0	0.0	0.0	0.0	1	1.006123097007679	-0.40292244739514177	400.0	1	1.05	0.95				
	9	1	0.0	0.0	0.0	0.0	1	1.0143028893294639	-2.3126861562907592	400.0	1	1.05	0.95				
	10	2	6.726500000000001	4.95	0.0	0.0	1	1.036309302889955	-7.823684677890586	220.0	1	1.11	0.95				
	11	1	0.0	0.0	0.0	0.0	1	1.0245787056719282	-0.6365841579247983	220.0	1	1.11	0.95				
	12	1	0.0	0.0	0.0	0.0	1	1.0366965988031478	-4.688290680249446	220.0	1	1.11	0.95				
	13	1	0.0	0.0	0.0	0.0	1	1.0366867934636927	-3.816403883817217	220.0	1	1.11	0.95				
	14	1	0.0	0.0	0.0	0.0	1	1.0097909617235385	-1.4205792002492914	220.0	1	1.11	0.95				
	15	1	0.0	0.0	0.0	0.0	1	1.0024726157792094	-1.388202216385699	400.0	1	1.05	0.95				
	16	2	30.184000000000005	55.00000000000001	0.0	0.0	1	1.0297051058560882	3.7024394957680626	220.0	1	1.11	0.95				
	17	2	42.35	82.5	0.0	0.0	1	1.0130405873532304	-0.9491191903116526	220.0	1	1.11	0.95				
	18	3	84.15000000000002	192.50000000000003	0.0	0.0	1	0.9781761023395134	1.0605603759749835e-28	400.0	1	1.05	0.95				
	19	1	0.0	0.0	0.0	0.0	1	1.0406673523491807	-4.497853489550401	220.0	1	1.11	0.95				
	20	1	0.0	0.0	0.0	0.0	1	0.9824400533895604	-0.0196760809602508	400.0	1	1.05	0.95				
	21	1	0.0	0.0	0.0	0.0	1	1.0346544463874192	-4.085554532028884	220.0	1	1.11	0.95				
	22	1	0.0	0.0	0.0	0.0	1	1.0307869248944375	-2.1459464816241685	220.0	1	1.11	0.95				
	23	1	0.0	0.0	0.0	0.0	1	1.0469173685976472	-1.9516033807931996	220.0	2	1.11	0.95				
	24	1	0.0	0.0	0.0	0.0	1	1.0597819731482407	-0.8800922203462083	220.0	2	1.11	0.95				
	25	1	0.0	0.0	0.0	0.0	1	1.0536663490921079	-0.3945457872631185	220.0	2	1.11	0.95				
	26	1	0.0	0.0	0.0	0.0	1	1.047085255044023	-2.2362209373874884	220.0	2	1.11	0.95				
	27	1	0.0	0.0	0.0	0.0	1	1.0388700840802634	-0.7412051354805925	220.0	2	1.11	0.95				
	28	1	0.0	0.0	0.0	0.0	1	1.0388743066026873	-0.7379975086365035	220.0	2	1.11	0.95				
	29	2	14.289000000000001	33.0	0.0	0.0	1	1.042667697059119	-1.4311239274275154	220.0	2	1.11	0.95				
	30	2	14.289000000000001	33.0	0.0	0.0	1	1.0426340014037434	-1.434657207344915	220.0	2	1.11	0.95				
	31	2	11.539000000000001	27.500000000000004	0.0	0.0	1	1.002033682645667	2.8761185362391473	400.0	2	1.05	0.95				
	32	1	0.0	0.0	0.0	0.0	1	1.0019210272636383	2.844373006078606	400.0	2	1.05	0.95				
	33	1	0.0	0.0	0.0	0.0	1	1.0362930876944871	-1.1788031641978598	220.0	2	1.11	0.95				
	34	1	0.0	0.0	0.0	0.0	1	1.0430376655495301	0.6098188610665967	400.0	2	1.05	0.95				
	35	1	0.0	0.0	0.0	0.0	1	1.0430827321864398	0.6061899407733004	400.0	2	1.05	0.95				
	36	1	0.0	0.0	0.0	0.0	1	0.9922861775425443	0.6481872914066529	400.0	2	1.05	0.95				
	37	1	0.0	0.0	0.0	0.0	1	1.0500659301952042	-0.9331775877640722	220.0	2	1.11	0.95				
	38	1	0.0	0.0	0.0	0.0	1	1.050053323822773	-0.9300024347738377	220.0	2	1.11	0.95				
	39	1	0.0	0.0	0.0	0.0	1	1.0089334497206184	2.2984719724829517	400.0	2	1.05	0.95				
	40	1	0.0	0.0	0.0	0.0	1	1.0089610842375645	2.2984405270681663	400.0	2	1.05	0.95				
	41	2	6.5945	16.5	0.0	0.0	1	1.0550041760394577	0.49116373252436124	220.0	2	1.11	0.95				
	42	2	6.5945	16.5	0.0	0.0	1	1.0549832494593778	0.4826560924268486	220.0	2	1.11	0.95				
	43	2	13.189	33.0	0.0	0.0	1	1.0182365615045805	3.226040714319011	400.0	2	1.05	0.95				
	44	2	13.189	33.0	0.0	0.0	1	1.018260897473067	3.2207951679288773	400.0	2	1.05	0.95				
	45	2	87.912	41.25	0.0	0.0	1	1.0394390598827716	-1.937669816712759	220.0	2	1.11	0.95				
	46	1	0.0	0.0	0.0	0.0	1	1.039465941460965	-1.9362739053035352	220.0	2	1.11	0.95				
	47	1	0.0	0.0	0.0	0.0	1	1.040364208456595	-1.103165450066127	220.0	2	1.11	0.95				
	48	1	0.0	0.0	0.0	0.0	1	1.0388059542080117	-2.100815229763831	220.0	2	1.11	0.95				
	49	1	0.0	0.0	0.0	0.0	1	1.0388088946994896	-2.101768110968398	220.0	2	1.11	0.95				
	50	1	0.0	0.0	0.0	0.0	1	1.0257237379193183	1.533360611861137	400.0	2	1.05	0.95				
	51	1	0.0	0.0	0.0	0.0	1	1.025850600974934	1.5237628351336585	400.0	2	1.05	0.95				
	52	1	0.0	0.0	0.0	0.0	1	1.0468697556747781	-1.4485852836566309	220.0	2	1.11	0.95				
	53	1	0.0	0.0	0.0	0.0	1	1.04876952878425	-1.3047751051952297	220.0	2	1.11	0.95				
	54	1	0.0	0.0	0.0	0.0	1	1.05395326748319	-0.3631209508462098	220.0	2	1.11	0.95				
	55	1	0.0	0.0	0.0	0.0	1	1.0497640443267549	0.2817362560410791	220.0	2	1.11	0.95				
	56	1	0.0	0.0	0.0	0.0	1	1.0306923689907714	0.3259267482651375	220.0	3	1.11	0.95				
	57	1	12.639	6.0280000000000005	0.0	0.0	1	1.0692909406798685	1.483900675336702	220.0	3	1.11	0.95				
	58	1	12.089	3.1845000000000003	0.0	0.0	1	1.0694126814462008	1.483104290033356	220.0	3	1.11	0.95				
	59	1	0.0	0.0	0.0	0.0	1	1.0580905416388693	7.562501517040224	220.0	3	1.11	0.95				
	60	1	0.0	0.0	0.0	0.0	1	1.0435903138657923	1.2170369012002005	220.0	3	1.11	0.95				
	61	1	0.0	0.0	0.0	0.0	1	1.0674294740715726	9.963774588901758	220.0	3	1.11	0.95				
	62	1	0.0	0.0	0.0	0.0	1	1.0674374773905988	9.966415677082217	220.0	3	1.11	0.95				
	63	2	20.5535	28.979499999999998	0.0	0.0	1	1.0569112243193173	7.624506429095616	220.0	3	1.11	0.95				
	64	2	19.4535	30.426000000000002	0.0	0.0	1	1.056458893099752	7.351550077857173	220.0	3	1.11	0.95				
	65	1	7.364500000000001	1.111	0.0	0.0	1	1.0533331806949853	5.248714075417804	220.0	3	1.11	0.95				
	66	1	0.0	0.0	0.0	0.0	1	1.0484935158635251	0.0841849769617807	220.0	3	1.11	0.95				
	67	2	33.22	50.65500000000001	0.0	0.0	1	0.9870902587399039	1.7617838138921493	400.0	3	1.05	0.95				
	68	1	0.0	0.0	0.0	0.0	1	1.0455909543150492	-0.2649660178791029	220.0	3	1.11	0.95				
	69	1	0.0	0.0	0.0	0.0	1	1.0506900921970066	4.867335783650761	220.0	3	1.11	0.95				
	70	1	0.0	0.0	0.0	0.0	1	1.0332971366680528	1.3024392944719227	220.0	3	1.11	0.95				
	71	1	0.0	0.0	0.0	0.0	1	1.0424607924174882	4.381132138570742	220.0	3	1.11	0.95				
	72	1	0.0	0.0	0.0	0.0	1	1.0424607924174882	4.381132138570742	220.0	3	1.11	0.95				
	73	1	0.0	0.0	0.0	0.0	1	1.0346525310275207	1.927460516523426	220.0	3	1.11	0.95				
	74	1	0.0	0.0	0.0	0.0	1	1.0330622089851789	0.7293066006887193	220.0	3	1.11	0.95				
	75	1	0.0	0.0	0.0	0.0	1	0.9793048760066497	-0.37219006369968893	400.0	3	1.05	0.95				
	76	1	0.0	0.0	0.0	0.0	1	0.979276848948683	-0.37619029415342775	400.0	3	1.05	0.95				
	77	1	0.0	0.0	0.0	0.0	1	1.042830729284793	3.762424407886083	220.0	3	1.11	0.95				
	78	1	0.0	0.0	0.0	0.0	1	1.041041511174243	0.80421870147414	220.0	3	1.11	0.95				
	79	1	0.0	0.0	0.0	0.0	1	1.0490445096223067	5.434968446328271	220.0	3	1.11	0.95				
	80	1	0.0	0.0	0.0	0.0	1	1.0696350877919982	1.511987001360518	220.0	3	1.11	0.95				
	81	1	0.0	0.0	0.0	0.0	1	1.0696495459151185	1.5129705384169405	220.0	3	1.11	0.95				
	82	1	0.0	0.0	0.0	0.0	1	1.065200953301781	8.877312575099776	220.0	3	1.11	0.95				
	83	2	8.794500000000001	12.6335	0.0	0.0	1	1.0486737308781269	4.469542074269586	220.0	3	1.11	0.95				
	84	2	8.6845	12.248500000000002	0.0	0.0	1	1.0487615709554343	4.467408164526955	220.0	3	1.11	0.95				
	85	2	5.4945	9.355500000000003	0.0	0.0	1	1.0415173153955644	3.308492885553991	220.0	3	1.11	0.95				
	86	2	5.4945	9.163	0.0	0.0	1	1.0414516858063314	3.311629146048012	220.0	3	1.11	0.95				
	87	1	6.099500000000001	8.921	0.0	0.0	1	1.0424810125534179	3.5777558916847285	220.0	3	1.11	0.95				
	88	1	0.0	0.0	0.0	0.0	1	1.0425042409194136	3.5806144824764625	220.0	3	1.11	0.95				
	89	1	0.0	0.0	0.0	0.0	1	1.0516339096751992	4.927544791094592	220.0	3	1.11	0.95				
	90	1	0.0	0.0	0.0	0.0	1	1.0469967031454546	3.2201995100023217	220.0	3	1.11	0.95				
	91	1	0.0	0.0	0.0	0.0	1	1.0550739480942362	6.012435393217046	220.0	3	1.11	0.95				
	92	1	0.0	0.0	0.0	0.0	1	0.9797214375730796	-0.4785855787577839	400.0	3	1.05	0.95				
	93	2	5.4945	9.014500000000002	0.0	0.0	1	1.0538207510760487	6.32304410867192	220.0	3	1.11	0.95				
	94	1	0.0	0.0	0.0	0.0	1	1.053814676440392	6.322205020042386	220.0	3	1.11	0.95				
	95	2	3.7895000000000003	4.4825	0.0	0.0	1	1.057790604528929	5.287048769244913	220.0	3	1.11	0.95				
	96	1	0.0	0.0	0.0	0.0	1	1.0577980030776277	5.284395896001398	220.0	3	1.11	0.95				
	97	2	4.7795	2.8930000000000002	0.0	0.0	1	1.0858113047885962	5.040319768022363	220.0	3	1.11	0.95				
	98	1	0.0	0.0	0.0	0.0	1	1.0136790616043485	1.7169644397212829	400.0	3	1.05	0.95				
	99	1	0.0	0.0	0.0	0.0	1	1.0137181222775888	1.7207243027886336	400.0	3	1.05	0.95				
	100	1	0.0	0.0	0.0	0.0	1	0.9953016781178018	0.39844091288194516	400.0	3	1.05	0.95				
	101	1	0.0	0.0	0.0	0.0	1	0.9953523639845208	0.40094595065609123	400.0	3	1.05	0.95				
	102	1	0.0	0.0	0.0	0.0	1	1.053270225414528	4.874905331057969	220.0	3	1.11	0.95				
	103	2	9.949500000000002	13.068000000000001	0.0	0.0	1	1.0389218275663348	1.984598450693199	220.0	3	1.11	0.95				
	104	2	18.524	25.360500000000002	0.0	0.0	1	1.0390179489914317	1.98637653712872	220.0	3	1.11	0.95				
	105	2	18.579	34.62250000000001	0.0	0.0	1	0.962649089411809	-1.37056497589137	400.0	3	1.05	0.95				
	106	1	0.0	0.0	0.0	0.0	1	0.9627958187936384	-1.360994077758876	400.0	3	1.05	0.95				
	107	1	0.0	0.0	0.0	0.0	1	1.032704605387885	1.036504656421286	220.0	3	1.11	0.95				
	108	1	0.0	0.0	0.0	0.0	1	1.033491718172895	1.0295966625017572	220.0	3	1.11	0.95				
	109	2	0.55	12.298	0.0	0.0	1	1.0695230588457043	10.738154976537606	220.0	3	1.11	0.95				
	110	2	0.55	12.199000000000002	0.0	0.0	1	1.069527158971205	10.740815238752731	220.0	3	1.11	0.95				
	111	2	14.5695	9.9	0.0	0.0	1	1.0448786323272192	-2.8880392872864498	220.0	4	1.11	0.95				
	112	1	0.0	0.0	0.0	0.0	1	1.044819146384094	-2.8858457111942886	220.0	4	1.11	0.95				
	113	1	0.0	0.0	0.0	0.0	1	1.047101080798752	-5.865996586927958	220.0	4	1.11	0.95				
	114	1	0.0	0.0	0.0	0.0	1	1.0517827978159837	-5.338068300317036	220.0	4	1.11	0.95				
	115	1	0.0	0.0	0.0	0.0	1	0.9659876675528686	-3.590312910148973	400.0	4	1.05	0.95				
	116	1	0.0	0.0	0.0	0.0	1	0.9660268998318561	-3.5859741564284633	400.0	4	1.05	0.95				
	117	1	0.0	0.0	0.0	0.0	1	1.0703559205143671	-4.396023525969953	220.0	4	1.11	0.95				
	118	1	0.0	0.0	0.0	0.0	1	1.0505119248033497	-1.7843199093054942	220.0	4	1.11	0.95				
	119	1	0.0	0.0	0.0	0.0	1	1.0505119248033497	-1.7843199093054942	220.0	4	1.11	0.95				
	120	1	0.0	0.0	0.0	0.0	1	1.0462201992082882	-4.006411968063473	220.0	4	1.11	0.95				
	121	1	0.0	0.0	0.0	0.0	1	1.0584690975195694	-5.679138528467654	220.0	4	1.11	0.95				
	122	1	0.0	0.0	0.0	0.0	1	1.0584690975195694	-5.679138528467654	220.0	4	1.11	0.95				
	123	2	3.0250000000000004	3.8500000000000005	0.0	0.0	1	1.0585860672241392	-3.2443206774916193	220.0	4	1.11	0.95				
	124	2	4.8345	9.350000000000001	0.0	0.0	1	1.058593017547033	-3.2413523829701694	220.0	4	1.11	0.95				
	125	2	19.635	10.065	0.0	0.0	1	1.0606443935521201	-0.2600975456127175	220.0	4	1.11	0.95				
	126	1	13.904000000000002	8.745000000000001	0.0	0.0	1	1.0606149628378159	-0.24974736285232957	220.0	4	1.11	0.95				
	127	2	14.1405	8.415000000000001	0.0	0.0	1	1.014201086327575	4.8985885937701426	400.0	4	1.05	0.95				
	128	1	0.0	0.0	0.0	0.0	1	1.0141693217489838	4.883314075614487	400.0	4	1.05	0.95				
	129	1	0.0	0.0	0.0	0.0	1	1.0567907359031186	-5.768576679002608	220.0	4	1.11	0.95				
	130	1	0.0	0.0	0.0	0.0	1	1.0382290886902894	-5.710632703260872	220.0	4	1.11	0.95				
	131	2	37.768499999999996	38.5	0.0	0.0	1	1.0561767024890607	-3.7822179834205545	220.0	4	1.11	0.95				
	132	2	18.150000000000002	24.750000000000004	0.0	0.0	1	1.056185106182971	-3.780527272369216	220.0	4	1.11	0.95				
	133	1	0.0	0.0	0.0	0.0	1	0.9548807003998891	-3.5149136269670005	400.0	4	1.05	0.95				
	134	1	0.0	0.0	0.0	0.0	1	0.9548438469764762	-3.5148921619472757	400.0	4	1.05	0.95				
	135	1	0.0	0.0	0.0	0.0	1	1.049973896422814	-1.8770207618242472	220.0	4	1.11	0.95				
	136	1	0.0	0.0	0.0	0.0	1	1.049973896422814	-1.8770207618242472	220.0	4	1.11	0.95				
	137	1	0.0	0.0	0.0	0.0	1	0.97936821151198	-2.1948721213550204	400.0	4	1.05	0.95				
	138	1	0.0	0.0	0.0	0.0	1	0.97936821151198	-2.1948721213550204	400.0	4	1.05	0.95				
	139	2	18.26	12.430000000000001	0.0	0.0	1	1.059010067108334	-3.356343243220437	220.0	4	1.11	0.95				
	140	2	16.076500000000003	10.780000000000001	0.0	0.0	1	1.0590292823442475	-3.3576289075964354	220.0	4	1.11	0.95				
	141	1	0.0	0.0	0.0	0.0	1	1.072533868898973	-4.571725995324586	220.0	4	1.11	0.95				
	142	1	0.0	0.0	0.0	0.0	1	1.048996950314126	-1.8914646236081278	220.0	4	1.11	0.95				
	143	1	0.0	0.0	0.0	0.0	1	1.0754821950920865	-4.361790091546946	220.0	4	1.11	0.95				
	144	1	0.0	0.0	0.0	0.0	1	1.0754305703104505	-4.364946259788541	220.0	4	1.11	0.95				
	145	1	0.0	0.0	0.0	0.0	1	0.9710391181609005	-1.8323134678771367	400.0	4	1.05	0.95				
	146	1	0.0	0.0	0.0	0.0	1	0.9710391181609005	-1.8323134678771367	400.0	4	1.05	0.95				
	147	1	0.0	0.0	0.0	0.0	1	1.0478042864808033	-5.840346343051243	220.0	4	1.11	0.95				
	148	1	0.0	0.0	0.0	0.0	1	1.047840379224344	-5.838907056165471	220.0	4	1.11	0.95				
	149	1	0.0	0.0	0.0	0.0	1	1.0732308211077888	-4.636900792405801	220.0	4	1.11	0.95				
	150	1	0.0	0.0	0.0	0.0	1	1.0491049909662162	-5.513681474568384	220.0	4	1.11	0.95				
	151	1	0.0	0.0	0.0	0.0	1	1.0491236715807886	-5.515884355755989	220.0	4	1.11	0.95				
	152	1	0.0	0.0	0.0	0.0	1	1.0464024798467673	-4.575195590356023	220.0	4	1.11	0.95				
	153	1	0.0	0.0	0.0	0.0	1	1.0464024798467673	-4.575195590356023	220.0	4	1.11	0.95				
	154	1	0.0	0.0	0.0	0.0	1	1.0386364093072344	-6.398776069920769	220.0	4	1.11	0.95				
	155	1	0.0	0.0	0.0	0.0	1	1.0555820345525335	-3.346589698459636	220.0	5	1.11	0.95				
	156	1	0.0	0.0	0.0	0.0	1	1.1100000107932335	1.3528871521087669	220.0	5	1.11	0.95				
	157	1	0.0	0.0	0.0	0.0	1	1.0153972690545452	2.963517019371433	400.0	5	1.05	0.95				
	158	1	0.0	0.0	0.0	0.0	1	1.0153700059990902	2.9630829029133277	400.0	5	1.05	0.95				
	159	1	0.0	0.0	0.0	0.0	1	1.0118774580267476	2.032455768587714	400.0	5	1.05	0.95				
	160	1	0.0	0.0	0.0	0.0	1	1.0119045045903747	2.0349991354409087	400.0	5	1.05	0.95				
	161	1	0.0	0.0	0.0	0.0	1	1.0669761401854405	-1.2608865128208522	220.0	5	1.11	0.95				
	162	1	0.0	0.0	0.0	0.0	1	1.0669794119471767	-1.2595869935114237	220.0	5	1.11	0.95				
	163	1	0.0	0.0	0.0	0.0	1	1.0891665347306838	-2.0308369444632626	220.0	5	1.11	0.95				
	164	1	0.0	0.0	0.0	0.0	1	1.0891534846252815	-2.035024714557541	220.0	5	1.11	0.95				
	165	1	0.0	0.0	0.0	0.0	1	0.9967932901333196	-1.7316841400297442	400.0	5	1.05	0.95				
	166	1	0.0	0.0	0.0	0.0	1	1.0647176261554738	-3.1153826712275507	220.0	5	1.11	0.95				
	167	1	0.0	0.0	0.0	0.0	1	1.064753576223139	-3.1143209086139727	220.0	5	1.11	0.95				
	168	1	0.0	0.0	0.0	0.0	1	1.0152647908679446	-0.2780806125030288	400.0	5	1.05	0.95				
	169	1	0.0	0.0	0.0	0.0	1	1.0152620939492667	-0.2872460047574165	400.0	5	1.05	0.95				
	170	1	0.0	0.0	0.0	0.0	1	1.0383917657597124	-6.254885626680616	220.0	5	1.11	0.95				
	171	1	0.0	0.0	0.0	0.0	1	1.0384071430052626	-6.2562464395690345	220.0	5	1.11	0.95				
	172	1	0.0	0.0	0.0	0.0	1	1.0667081950739452	-3.7080651167334095	220.0	5	1.11	0.95				
	173	1	0.0	0.0	0.0	0.0	1	1.0666720911501686	-3.7104945148048594	220.0	5	1.11	0.95				
	174	1	0.0	0.0	0.0	0.0	1	1.0530506616565543	-4.297551636545218	220.0	5	1.11	0.95				
	175	1	0.0	0.0	0.0	0.0	1	1.0530557858924705	-4.297029883818822	220.0	5	1.11	0.95				
	176	2	0.0	22.000000000000004	0.0	0.0	1	1.0054770610330224	4.614354972562996	400.0	5	1.05	0.95				
	177	2	0.0	22.000000000000004	0.0	0.0	1	1.0054679263758997	4.609465367299445	400.0	5	1.05	0.95				
	178	1	0.0	0.0	0.0	0.0	1	1.090730789963032	-0.41540785297403154	220.0	5	1.11	0.95				
	179	1	0.0	0.0	0.0	0.0	1	1.090746598919795	-0.41149464852644846	220.0	5	1.11	0.95				
	180	2	186.91750000000002	27.280000000000005	0.0	0.0	2	0.9499999908505873	-3.023902994858066	400.0	6	1.05	0.95				
	181	2	0.0	0.0	0.0	0.0	3	1.0526185002545603	7.992192922488692	220.0	6	1.11	0.95				
	182	2	0.0	0.0	0.0	0.0	5	0.9548132253748303	-3.1852902460774923	400.0	6	1.05	0.95				
	183	1	82.5	0.0	0.0	0.0	3	1.0500000104775506	0.07959431755107312	400.0	6	1.05	0.95				
	184	2	174.53699999999998	27.665	0.0	0.0	2	1.0509424648153463	4.002489093371148	220.0	6	1.11	0.95				
	185	2	199.3365	20.185000000000002	0.0	0.0	2	0.9499999909313904	-3.522031601730228	400.0	6	1.05	0.95				
	186	2	18.331500000000002	0.55	0.0	0.0	5	1.059922954438974	-0.32609010861283144	220.0	6	1.11	0.95				
	187	1	3.916	0.8250000000000001	0.0	0.0	1	1.0496320596861042	-7.8821348173717025	110.0	1	1.12	0.95				
	188	1	4.1965	0.55	0.0	0.0	1	1.0235976838652363	-12.551160052312712	110.0	1	1.12	0.95				
	189	1	5.373500000000001	4.785	0.0	0.0	1	1.014134469983798	-8.147557514572487	110.0	1	1.12	0.95				
	190	1	3.366	0.8250000000000001	0.0	0.0	1	1.0494700066595326	-0.3802456473778241	110.0	1	1.12	0.95				
	191	1	3.366	0.88	0.0	0.0	1	1.0315303862708967	-3.9515892317986214	110.0	1	1.12	0.95				
	192	2	16.808	6.6000000000000005	0.0	0.0	1	1.0812823070472342	-5.0075995939892355	110.0	1	1.12	0.95				
	193	1	8.404	1.6500000000000001	0.0	0.0	1	1.0815918712325088	-5.035642415444844	110.0	1	1.12	0.95				
	194	1	0.0	0.0	0.0	0.0	1	1.0801134130289032	-5.253126733414638	110.0	1	1.12	0.95				
	195	1	4.477	1.1	0.0	0.0	1	1.0532795073532935	-5.610321027328209	110.0	1	1.12	0.95				
	196	2	3.8060000000000005	0.8250000000000001	0.0	0.0	1	1.0577545240013246	-8.856990032626381	110.0	1	1.12	0.95				
	197	1	3.8060000000000005	0.8250000000000001	0.0	0.0	1	1.0430810596941655	-5.765656507303821	110.0	1	1.12	0.95				
	198	2	6.776	0.935	0.0	0.0	1	1.0562598522696476	-6.036404672981269	110.0	1	1.12	0.95				
	199	1	0.7865000000000001	0.275	0.0	0.0	1	1.0583383208061663	-2.7846441512383415	110.0	1	1.12	0.95				
	200	1	0.5940000000000001	0.275	0.0	0.0	1	1.097366884421011	-5.285616720327138	110.0	1	1.12	0.95				
...
];

%% generator data
%    bus    Pg    Qg    Qmax    Qmin    Vg    mBase    status    Pmax    Pmin    Pc1    Pc2    Qc1min    Qc1max    Qc2min    Qc2max    ramp_agc    ramp_10    ramp_30    ramp_q    apf
mpc.gen = [
	10	-9.841011034924702e-7	5.415111072433403e-7	120.0	0.0	1.0	168.0	1	400.0	0.0	0.0	0.0	0.0	0.0	0.0	0.0	0.0	0.0	0.0	0.0	0.0				
	16	720.0000071883846	-12.502470275571332	440.00000000000006	-40.0	1.0	823.0	1	720.0	0.0	0.0	0.0	0.0	0.0	0.0	0.0	0.0	0.0	0.0	0.0	0.0				
	17	-9.625099900625882e-7	-58.56400500791183	660.0	-60.0	1.0	1234.0	1	1080.0	0.0	0.0	0.0	0.0	0.0	0.0	0.0	0.0	0.0	0.0	0.0	0.0				
	18	-9.898428332786017e-7	-140.00000020745625	1540.0	-140.0	1.0	2879.0	1	2520.0	0.0	0.0	0.0	0.0	0.0	0.0	0.0	0.0	0.0	0.0	0.0	0.0				
	29	-9.93977494027676e-7	-5.229734641430079e-7	240.0	0.0	1.0	511.0	1	400.0	0.0	0.0	0.0	0.0	0.0	0.0	0.0	0.0	0.0	0.0	0.0	0.0				
	30	-9.945449105702427e-7	-5.232544356117874e-7	240.0	0.0	1.0	511.0	1	800.0	0.0	0.0	0.0	0.0	0.0	0.0	0.0	0.0	0.0	0.0	0.0	0.0				
	31	1000.0000099722286	-6.909349505493889e-7	350.0	0.0	1.0	420.0	1	1000.0	0.0	0.0	0.0	0.0	0.0	0.0	0.0	0.0	0.0	0.0	0.0	0.0				
	41	-9.73362437009648e-7	-8.213295986926277e-7	120.0	0.0	1.0	241.0	1	200.0	0.0	0.0	0.0	0.0	0.0	0.0	0.0	0.0	0.0	0.0	0.0	0.0				
	42	-9.930589730518873e-7	-8.211747778039688e-7	120.0	0.0	1.0	241.0	1	409.99999999999994	0.0	0.0	0.0	0.0	0.0	0.0	0.0	0.0	0.0	0.0	0.0	0.0				
	43	410.0000040597902	-8.737924985916005e-7	240.0	0.0	1.0	482.0	1	409.99999999999994	0.0	0.0	0.0	0.0	0.0	0.0	0.0	0.0	0.0	0.0	0.0	0.0				
	44	325.9897353559281	-8.739002433481242e-7	240.0	0.0	1.0	482.0	1	409.99999999999994	0.0	0.0	0.0	0.0	0.0	0.0	0.0	0.0	0.0	0.0	0.0	0.0				
	45	42.20000099510615	-5.567651991966049e-7	21.0	0.0	1.0	49.0	1	42.2	0.0	0.0	0.0	0.0	0.0	0.0	0.0	0.0	0.0	0.0	0.0	0.0				
	63	650.0000064699962	7.301503769794926e-6	302.0	0.0	1.0	473.0	1	650.0	0.0	0.0	0.0	0.0	0.0	0.0	0.0	0.0	0.0	0.0	0.0	0.0				
	64	450.00000421122917	2.0000030434618554	311.0	2.0	1.0	475.0	1	450.0	0.0	0.0	0.0	0.0	0.0	0.0	0.0	0.0	0.0	0.0	0.0	0.0				
	67	750.0000074076072	5.852554464974115e-6	449.0	0.0	1.0	864.0	1	750.0	0.0	0.0	0.0	0.0	0.0	0.0	0.0	0.0	0.0	0.0	0.0	0.0				
	83	225.00000223362346	-88.9953901534583	190.0	-89.0	1.0	239.0	1	225.0	0.0	0.0	0.0	0.0	0.0	0.0	0.0	0.0	0.0	0.0	0.0	0.0				
	84	-3.565372442034346e-7	78.26226108392476	190.0	-89.0	1.0	251.0	1	225.0	0.0	0.0	0.0	0.0	0.0	0.0	0.0	0.0	0.0	0.0	0.0	0.0				
	85	-9.730716730820435e-7	52.6527016506287	125.0	-50.0	1.0	133.0	1	120.0	0.0	0.0	0.0	0.0	0.0	0.0	0.0	0.0	0.0	0.0	0.0	0.0				
	86	-9.884170975195893e-7	-49.99933333613155	125.0	-50.0	1.0	133.0	1	120.0	0.0	0.0	0.0	0.0	0.0	0.0	0.0	0.0	0.0	0.0	0.0	0.0				
	93	-9.66659879252403e-7	5.000001476715989	90.0	5.0	1.0	123.0	1	120.0	0.0	0.0	0.0	0.0	0.0	0.0	0.0	0.0	0.0	0.0	0.0	0.0				
	95	-9.809898051557886e-7	26.999999922141843	68.0	27.0	1.0	105.0	1	110.00000000000001	0.0	0.0	0.0	0.0	0.0	0.0	0.0	0.0	0.0	0.0	0.0	0.0				
	97	87.60000099480247	26.999999597674368	68.0	27.0	1.0	105.0	1	87.6	0.0	0.0	0.0	0.0	0.0	0.0	0.0	0.0	0.0	0.0	0.0	0.0				
	103	-9.93492546775158e-7	-81.9984749193741	177.0	-82.0	1.0	239.0	1	400.0	0.0	0.0	0.0	0.0	0.0	0.0	0.0	0.0	0.0	0.0	0.0	0.0				
	104	-9.799303894952023e-7	74.45153993592068	379.0	-177.0	1.0	490.0	1	225.0	0.0	0.0	0.0	0.0	0.0	0.0	0.0	0.0	0.0	0.0	0.0	0.0				
	105	-9.744887911852982e-7	-165.00000004256557	353.0	-165.0	1.0	502.0	1	430.0	0.0	0.0	0.0	0.0	0.0	0.0	0.0	0.0	0.0	0.0	0.0	0.0				
	109	250.00000249476795	16.15284619707146	65.0	0.0	1.0	277.0	1	250.0	0.0	0.0	0.0	0.0	0.0	0.0	0.0	0.0	0.0	0.0	0.0	0.0				
	110	250.00000249476787	15.991898486346923	65.0	0.0	1.0	280.0	1	250.0	0.0	0.0	0.0	0.0	0.0	0.0	0.0	0.0	0.0	0.0	0.0	0.0				
	111	-9.91187117504515e-7	2.213656325545048e-6	270.0	0.0	1.0	401.0	1	360.0	0.0	0.0	0.0	0.0	0.0	0.0	0.0	0.0	0.0	0.0	0.0	0.0				
	123	-9.93849197758476e-7	9.612944285571153e-7	40.0	0.0	1.0	98.0	1	110.00000000000001	0.0	0.0	0.0	0.0	0.0	0.0	0.0	0.0	0.0	0.0	0.0	0.0				
	124	125.0000011410869	9.56104756268961e-7	90.0	0.0	1.0	132.0	1	125.0	0.0	0.0	0.0	0.0	0.0	0.0	0.0	0.0	0.0	0.0	0.0	0.0				
	125	-9.949525834163155e-7	4.5358358267289115e-5	360.0	0.0	1.0	654.0	1	860.0	0.0	0.0	0.0	0.0	0.0	0.0	0.0	0.0	0.0	0.0	0.0	0.0				
	127	690.0000068131874	6.785673203564974e-7	360.0	0.0	1.0	540.0	1	690.0	0.0	0.0	0.0	0.0	0.0	0.0	0.0	0.0	0.0	0.0	0.0	0.0				
	131	-9.92807068356752e-7	6.078954477378231e-6	360.0	0.0	1.0	696.0	1	1060.0	0.0	0.0	0.0	0.0	0.0	0.0	0.0	0.0	0.0	0.0	0.0	0.0				
	132	-9.939425210120318e-7	6.067088615044404e-6	480.0	0.0	1.0	732.0	1	600.0	0.0	0.0	0.0	0.0	0.0	0.0	0.0	0.0	0.0	0.0	0.0	0.0				
	139	-9.927461898657685e-7	9.03737116973967e-7	360.0	0.0	1.0	714.0	1	600.0	0.0	0.0	0.0	0.0	0.0	0.0	0.0	0.0	0.0	0.0	0.0	0.0				
	140	-9.488448992022456e-7	9.053779741872837e-7	120.0	0.0	1.0	240.0	1	200.0	0.0	0.0	0.0	0.0	0.0	0.0	0.0	0.0	0.0	0.0	0.0	0.0				
	176	600.0000059949942	-119.99939545155307	220.00000000000003	-120.0	1.0	430.0	1	600.0	0.0	0.0	0.0	0.0	0.0	0.0	0.0	0.0	0.0	0.0	0.0	0.0				
	177	200.00000199499422	-67.29034975156495	220.00000000000003	-120.0	1.0	430.0	1	200.0	0.0	0.0	0.0	0.0	0.0	0.0	0.0	0.0	0.0	0.0	0.0	0.0				
	180	0.0	-51.985291475900354	99999.0	-99999.0	1.0	7485.0	1	0.0	0.0	0.0	0.0	0.0	0.0	0.0	0.0	0.0	0.0	0.0	0.0	0.0				
	181	175.0000017448375	-21.467593689708647	99999.0	-99999.0	1.0	210.0	1	175.0	0.0	0.0	0.0	0.0	0.0	0.0	0.0	0.0	0.0	0.0	0.0	0.0				
	182	307.59000307103264	-39.133093602585745	99999.0	-99999.0	1.0	13465.0	1	307.59	0.0	0.0	0.0	0.0	0.0	0.0	0.0	0.0	0.0	0.0	0.0	0.0				
	184	0.0	32.11383101999365	99999.0	-99999.0	1.0	8353.0	1	0.0	0.0	0.0	0.0	0.0	0.0	0.0	0.0	0.0	0.0	0.0	0.0	0.0				
	185	0.0	-44.979497286314306	99999.0	-99999.0	1.0	14254.0	1	0.0	0.0	0.0	0.0	0.0	0.0	0.0	0.0	0.0	0.0	0.0	0.0	0.0				
	186	0.0	-12.228822466164731	99999.0	-99999.0	1.0	7401.0	1	0.0	0.0	0.0	0.0	0.0	0.0	0.0	0.0	0.0	0.0	0.0	0.0	0.0				
	192	95.00000099511013	-3.388206562556837e-7	50.0	0.0	1.0	114.0	1	95.0	0.0	0.0	0.0	0.0	0.0	0.0	0.0	0.0	0.0	0.0	0.0	0.0				
	196	0.9000009953398447	1.0000005830147876	1.0	0.0	1.0	1.0	1	0.9000000000000001	0.0	0.0	0.0	0.0	0.0	0.0	0.0	0.0	0.0	0.0	0.0	0.0				
	198	0.8000009952002476	1.0718229185188324e-6	1.0	0.0	1.0	1.0	1	0.8	0.0	0.0	0.0	0.0	0.0	0.0	0.0	0.0	0.0	0.0	0.0	0.0				
	205	15.000000995101454	2.7446496058504586	10.0	0.0	1.0	18.0	1	15.0	0.0	0.0	0.0	0.0	0.0	0.0	0.0	0.0	0.0	0.0	0.0	0.0				
	213	11.000000995270613	0.9863294266811109	8.0	0.0	1.0	13.0	1	11.0	0.0	0.0	0.0	0.0	0.0	0.0	0.0	0.0	0.0	0.0	0.0	0.0				
	264	2.5000009952748106	5.446792530819423e-7	2.0	0.0	1.0	3.0	1	2.5	0.0	0.0	0.0	0.0	0.0	0.0	0.0	0.0	0.0	0.0	0.0	0.0				
	269	6.00000099519271	-2.412537382430717e-7	5.0	0.0	1.0	7.0	1	6.0	0.0	0.0	0.0	0.0	0.0	0.0	0.0	0.0	0.0	0.0	0.0	0.0				
	277	70.00000099509279	21.08689581758175	42.0	0.0	1.0	84.0	1	70.0	0.0	0.0	0.0	0.0	0.0	0.0	0.0	0.0	0.0	0.0	0.0	0.0				
	278	60.00000099511047	1.1804491732692758e-5	40.0	0.0	1.0	72.0	1	60.0	0.0	0.0	0.0	0.0	0.0	0.0	0.0	0.0	0.0	0.0	0.0	0.0				
	279	60.000000995083425	10.571871428935173	40.0	0.0	1.0	72.0	1	60.0	0.0	0.0	0.0	0.0	0.0	0.0	0.0	0.0	0.0	0.0	0.0	0.0				
	281	120.00000119507219	17.405425182706978	90.0	0.0	1.0	144.0	1	120.0	0.0	0.0	0.0	0.0	0.0	0.0	0.0	0.0	0.0	0.0	0.0	0.0				
	282	40.00000099509691	11.210910170114767	40.0	0.0	1.0	48.0	1	40.0	0.0	0.0	0.0	0.0	0.0	0.0	0.0	0.0	0.0	0.0	0.0	0.0				
	289	2.500000995084377	2.999987162551406	3.0	0.0	1.0	3.0	1	2.5	0.0	0.0	0.0	0.0	0.0	0.0	0.0	0.0	0.0	0.0	0.0	0.0				
	294	2.0000009953361317	9.95979142926874e-7	1.0	0.0	1.0	2.0	1	2.0	0.0	0.0	0.0	0.0	0.0	0.0	0.0	0.0	0.0	0.0	0.0	0.0				
	314	1.500000995323384	9.631547498348966e-6	1.0	0.0	1.0	2.0	1	1.5	0.0	0.0	0.0	0.0	0.0	0.0	0.0	0.0	0.0	0.0	0.0	0.0				
	328	44.000000995095775	-3.0537547544452516e-7	21.0	0.0	1.0	53.0	1	44.0	0.0	0.0	0.0	0.0	0.0	0.0	0.0	0.0	0.0	0.0	0.0	0.0				
	329	44.000000995145896	5.564139297272418	21.0	0.0	1.0	53.0	1	44.0	0.0	0.0	0.0	0.0	0.0	0.0	0.0	0.0	0.0	0.0	0.0	0.0				
	330	44.000000995080484	-5.76210535945686e-7	21.0	0.0	1.0	53.0	1	44.0	0.0	0.0	0.0	0.0	0.0	0.0	0.0	0.0	0.0	0.0	0.0	0.0				
	331	43.000000995158686	1.1431904319764927e-6	21.0	0.0	1.0	52.0	1	43.0	0.0	0.0	0.0	0.0	0.0	0.0	0.0	0.0	0.0	0.0	0.0	0.0				
	334	1.5000009952795732	-4.306338197722007e-7	1.0	0.0	1.0	2.0	1	1.5	0.0	0.0	0.0	0.0	0.0	0.0	0.0	0.0	0.0	0.0	0.0	0.0				
	346	-9.90150088849232e-7	9.121641786426101e-6	120.0	0.0	1.0	180.0	1	200.0	0.0	0.0	0.0	0.0	0.0	0.0	0.0	0.0	0.0	0.0	0.0	0.0				
	347	10.000000995309401	2.2915959150560196e-10	15.0	0.0	1.0	12.0	1	10.0	0.0	0.0	0.0	0.0	0.0	0.0	0.0	0.0	0.0	0.0	0.0	0.0				
	359	1.5000009951832485	5.285303694318597e-7	1.0	0.0	1.0	2.0	1	1.5	0.0	0.0	0.0	0.0	0.0	0.0	0.0	0.0	0.0	0.0	0.0	0.0				
	365	5.100000995140647	1.3036752648234665e-6	3.0	0.0	1.0	6.0	1	5.1	0.0	0.0	0.0	0.0	0.0	0.0	0.0	0.0	0.0	0.0	0.0	0.0				
	382	8.000000995175878	2.5793155036508404	5.0	0.0	1.0	10.0	1	8.0	0.0	0.0	0.0	0.0	0.0	0.0	0.0	0.0	0.0	0.0	0.0	0.0				
	383	8.000000995180002	4.999963747569993	5.0	0.0	1.0	10.0	1	8.0	0.0	0.0	0.0	0.0	0.0	0.0	0.0	0.0	0.0	0.0	0.0	0.0				
	385	6.000000995212508	2.0943904289704064e-5	4.0	0.0	1.0	7.0	1	6.0	0.0	0.0	0.0	0.0	0.0	0.0	0.0	0.0	0.0	0.0	0.0	0.0				
	390	4.500000995153363	2.9999980324149673	3.0	0.0	1.0	5.0	1	4.5	0.0	0.0	0.0	0.0	0.0	0.0	0.0	0.0	0.0	0.0	0.0	0.0				
	395	10.00000099519715	-5.149580539004462e-7	8.0	0.0	1.0	12.0	1	10.0	0.0	0.0	0.0	0.0	0.0	0.0	0.0	0.0	0.0	0.0	0.0	0.0				
	404	3.0000009951891653	2.999999706614031	3.0	0.0	1.0	4.0	1	3.0	0.0	0.0	0.0	0.0	0.0	0.0	0.0	0.0	0.0	0.0	0.0	0.0				
	426	3.200000995367406	1.4802025807555291e-6	2.0	0.0	1.0	4.0	1	3.2	0.0	0.0	0.0	0.0	0.0	0.0	0.0	0.0	0.0	0.0	0.0	0.0				
	444	1.0000009951833597	9.304245675512773e-7	1.0	0.0	1.0	1.0	1	1.0	0.0	0.0	0.0	0.0	0.0	0.0	0.0	0.0	0.0	0.0	0.0	0.0				
	451	4.500000995149633	2.126819406213165e-6	3.0	0.0	1.0	5.0	1	4.5	0.0	0.0	0.0	0.0	0.0	0.0	0.0	0.0	0.0	0.0	0.0	0.0				
	482	1.0000009951288698	1.5441724588408858e-6	1.0	0.0	1.0	1.0	1	1.0	0.0	0.0	0.0	0.0	0.0	0.0	0.0	0.0	0.0	0.0	0.0	0.0				
	492	2.0000009951770674	-8.324796592940697e-8	1.0	0.0	1.0	2.0	1	2.0	0.0	0.0	0.0	0.0	0.0	0.0	0.0	0.0	0.0	0.0	0.0	0.0				
	493	234.00000233504525	3.87590870149778e-6	130.0	0.0	1.0	281.0	1	234.0	0.0	0.0	0.0	0.0	0.0	0.0	0.0	0.0	0.0	0.0	0.0	0.0				
	494	234.00000233504022	38.790983263371494	130.0	0.0	1.0	281.0	1	234.0	0.0	0.0	0.0	0.0	0.0	0.0	0.0	0.0	0.0	0.0	0.0	0.0				
	514	115.00000114516989	17.586205037882955	90.0	0.0	1.0	138.0	1	114.99999999999999	0.0	0.0	0.0	0.0	0.0	0.0	0.0	0.0	0.0	0.0	0.0	0.0				
	515	115.00000114516808	32.472781756547555	90.0	0.0	1.0	138.0	1	114.99999999999999	0.0	0.0	0.0	0.0	0.0	0.0	0.0	0.0	0.0	0.0	0.0	0.0				
	525	6.00000099522668	3.9999752360929772	4.0	0.0	1.0	7.0	1	6.0	0.0	0.0	0.0	0.0	0.0	0.0	0.0	0.0	0.0	0.0	0.0	0.0				
	536	6.000000995253694	1.4149233190433022	6.0	0.0	1.0	7.0	1	6.0	0.0	0.0	0.0	0.0	0.0	0.0	0.0	0.0	0.0	0.0	0.0	0.0				
	537	3.5000009952823707	7.927638647540466e-7	3.0	0.0	1.0	4.0	1	3.5000000000000004	0.0	0.0	0.0	0.0	0.0	0.0	0.0	0.0	0.0	0.0	0.0	0.0				
	556	2.7000009951800155	-7.251994976740295e-7	1.0	0.0	1.0	3.0	1	2.7	0.0	0.0	0.0	0.0	0.0	0.0	0.0	0.0	0.0	0.0	0.0	0.0				
	580	1.6000009950946494	-6.976432204841713e-7	1.0	0.0	1.0	2.0	1	1.6	0.0	0.0	0.0	0.0	0.0	0.0	0.0	0.0	0.0	0.0	0.0	0.0				
	584	2.7000009951011665	-4.69479216253572e-7	2.0	0.0	1.0	3.0	1	2.7	0.0	0.0	0.0	0.0	0.0	0.0	0.0	0.0	0.0	0.0	0.0	0.0				
	585	4.000000995099453	-4.694659119959394e-7	2.0	0.0	1.0	5.0	1	4.0	0.0	0.0	0.0	0.0	0.0	0.0	0.0	0.0	0.0	0.0	0.0	0.0				
	607	0.8000009950858807	0.0	0.0	0.0	1.0	1.0	1	0.8	0.0	0.0	0.0	0.0	0.0	0.0	0.0	0.0	0.0	0.0	0.0	0.0				
	612	-9.92139776616331e-7	5.527666707837162e-6	120.0	0.0	1.0	256.0	1	200.0	0.0	0.0	0.0	0.0	0.0	0.0	0.0	0.0	0.0	0.0	0.0	0.0				
	613	-9.892265671346663e-7	5.491530836978058e-6	120.0	0.0	1.0	256.0	1	200.0	0.0	0.0	0.0	0.0	0.0	0.0	0.0	0.0	0.0	0.0	0.0	0.0				
	615	1.4000009951189984	-6.275486641589032e-7	1.0	0.0	1.0	2.0	1	1.4	0.0	0.0	0.0	0.0	0.0	0.0	0.0	0.0	0.0	0.0	0.0	0.0				
	623	7.600000995124577	-5.438145617423583e-7	5.0	0.0	1.0	9.0	1	7.6	0.0	0.0	0.0	0.0	0.0	0.0	0.0	0.0	0.0	0.0	0.0	0.0				
	639	9.600000995100904	-6.903759018497239e-7	4.0	0.0	1.0	12.0	1	9.6	0.0	0.0	0.0	0.0	0.0	0.0	0.0	0.0	0.0	0.0	0.0	0.0				
	651	4.70000099512853	-6.804334731050186e-7	2.0	0.0	1.0	6.0	1	4.7	0.0	0.0	0.0	0.0	0.0	0.0	0.0	0.0	0.0	0.0	0.0	0.0				
	654	1.400000995088689	-8.175703332313926e-7	1.0	0.0	1.0	2.0	1	1.4	0.0	0.0	0.0	0.0	0.0	0.0	0.0	0.0	0.0	0.0	0.0	0.0				
	664	6.200000995092325	-7.371660993400256e-7	6.0	0.0	1.0	7.0	1	6.2	0.0	0.0	0.0	0.0	0.0	0.0	0.0	0.0	0.0	0.0	0.0	0.0				
	670	2.700000995090992	-8.796319600766202e-7	2.0	0.0	1.0	3.0	1	2.7	0.0	0.0	0.0	0.0	0.0	0.0	0.0	0.0	0.0	0.0	0.0	0.0				
	674	1.0000009951828035	0.0	0.0	0.0	1.0	1.0	1	1.0	0.0	0.0	0.0	0.0	0.0	0.0	0.0	0.0	0.0	0.0	0.0	0.0				
	688	-9.922541900427367e-7	-7.624298569368318e-7	120.0	0.0	1.0	242.0	1	202.0	0.0	0.0	0.0	0.0	0.0	0.0	0.0	0.0	0.0	0.0	0.0	0.0				
	692	1.4000009951789727	-1.353406175518563e-7	1.0	0.0	1.0	2.0	1	1.4	0.0	0.0	0.0	0.0	0.0	0.0	0.0	0.0	0.0	0.0	0.0	0.0				
	699	3.800000995083519	-8.813087853836857e-7	2.0	0.0	1.0	5.0	1	3.8	0.0	0.0	0.0	0.0	0.0	0.0	0.0	0.0	0.0	0.0	0.0	0.0				
	712	1.2000009951340918	-5.855670708611893e-7	1.0	0.0	1.0	1.0	1	1.2	0.0	0.0	0.0	0.0	0.0	0.0	0.0	0.0	0.0	0.0	0.0	0.0				
	730	6.900000995047405	-8.854257644820163e-7	3.0	0.0	1.0	8.0	1	6.9	0.0	0.0	0.0	0.0	0.0	0.0	0.0	0.0	0.0	0.0	0.0	0.0				
	732	1.1000009951533931	-8.449089604921523e-7	1.0	0.0	1.0	1.0	1	1.1	0.0	0.0	0.0	0.0	0.0	0.0	0.0	0.0	0.0	0.0	0.0	0.0				
	735	4.100000995109082	-6.812392925689129e-7	2.0	0.0	1.0	5.0	1	4.1	0.0	0.0	0.0	0.0	0.0	0.0	0.0	0.0	0.0	0.0	0.0	0.0				
	740	4.000000994902404	-9.006573764079079e-7	1.0	0.0	1.0	5.0	1	4.0	0.0	0.0	0.0	0.0	0.0	0.0	0.0	0.0	0.0	0.0	0.0	0.0				
	744	134.00000133478014	-8.880687616866403e-7	60.0	0.0	1.0	161.0	1	134.0	0.0	0.0	0.0	0.0	0.0	0.0	0.0	0.0	0.0	0.0	0.0	0.0				
	754	-9.688907107518988e-7	-8.047055384635054e-7	30.0	0.0	1.0	54.0	1	80.0	0.0	0.0	0.0	0.0	0.0	0.0	0.0	0.0	0.0	0.0	0.0	0.0				
	755	-9.932339599805585e-7	-7.878404966363651e-7	80.0	0.0	1.0	110.0	1	250.0	0.0	0.0	0.0	0.0	0.0	0.0	0.0	0.0	0.0	0.0	0.0	0.0				
	760	3.100000995104477	-6.179516986056461e-7	2.0	0.0	1.0	4.0	1	3.1	0.0	0.0	0.0	0.0	0.0	0.0	0.0	0.0	0.0	0.0	0.0	0.0				
	766	2.1000009950906398	-5.047394284894883e-7	1.0	0.0	1.0	3.0	1	2.1	0.0	0.0	0.0	0.0	0.0	0.0	0.0	0.0	0.0	0.0	0.0	0.0				
	784	0.7000009951706757	0.0	0.0	0.0	1.0	1.0	1	0.7	0.0	0.0	0.0	0.0	0.0	0.0	0.0	0.0	0.0	0.0	0.0	0.0				
	790	49.800000995009476	35.0	35.0	35.0	1.0	60.0	1	49.8	0.0	0.0	0.0	0.0	0.0	0.0	0.0	0.0	0.0	0.0	0.0	0.0				
	795	1.8900009948869412	1.0	1.0	1.0	1.0	2.0	1	1.8900000000000001	0.0	0.0	0.0	0.0	0.0	0.0	0.0	0.0	0.0	0.0	0.0	0.0				
	798	2.9900009949938693	3.0	3.0	3.0	1.0	4.0	1	2.99	0.0	0.0	0.0	0.0	0.0	0.0	0.0	0.0	0.0	0.0	0.0	0.0				
	814	44.9200009948971	8.831092752278243	42.0	0.0	1.0	54.0	1	44.92	0.0	0.0	0.0	0.0	0.0	0.0	0.0	0.0	0.0	0.0	0.0	0.0				
	834	-9.843173824313522e-7	35.73053987102798	83.0	0.0	1.0	110.0	1	55.00000000000001	0.0	0.0	0.0	0.0	0.0	0.0	0.0	0.0	0.0	0.0	0.0	0.0				
	878	2.9900009949514734	0.0	0.0	0.0	1.0	4.0	1	2.99	0.0	0.0	0.0	0.0	0.0	0.0	0.0	0.0	0.0	0.0	0.0	0.0				
	884	2.490000995054899	0.0	0.0	0.0	1.0	3.0	1	2.49	0.0	0.0	0.0	0.0	0.0	0.0	0.0	0.0	0.0	0.0	0.0	0.0				
	892	31.8700009950509	15.0778658279317	42.0	6.0	1.0	38.0	1	31.869999999999997	0.0	0.0	0.0	0.0	0.0	0.0	0.0	0.0	0.0	0.0	0.0	0.0				
	895	8.960000995046938	7.000000000000001	7.000000000000001	7.000000000000001	1.0	11.0	1	8.96	0.0	0.0	0.0	0.0	0.0	0.0	0.0	0.0	0.0	0.0	0.0	0.0				
	901	3.6800009948758956	2.0	2.0	2.0	1.0	4.0	1	3.6799999999999997	0.0	0.0	0.0	0.0	0.0	0.0	0.0	0.0	0.0	0.0	0.0	0.0				
	910	4.580000994905884	3.0	3.0	3.0	1.0	6.0	1	4.58	0.0	0.0	0.0	0.0	0.0	0.0	0.0	0.0	0.0	0.0	0.0	0.0				
	911	-7.019111854673992e-7	31.2738563266186	224.00000000000003	0.0	1.0	415.0	1	370.0	0.0	0.0	0.0	0.0	0.0	0.0	0.0	0.0	0.0	0.0	0.0	0.0				
	912	-9.901307691697204e-7	31.738330531301624	224.00000000000003	0.0	1.0	415.0	1	370.0	0.0	0.0	0.0	0.0	0.0	0.0	0.0	0.0	0.0	0.0	0.0	0.0				
	914	15.930000995015781	10.0	10.0	10.0	1.0	19.0	1	15.93	0.0	0.0	0.0	0.0	0.0	0.0	0.0	0.0	0.0	0.0	0.0	0.0				
	917	2.090000994977247	0.0	0.0	0.0	1.0	3.0	1	2.09	0.0	0.0	0.0	0.0	0.0	0.0	0.0	0.0	0.0	0.0	0.0	0.0				
	919	21.91000099445303	12.0	12.0	12.0	1.0	26.0	1	21.91	0.0	0.0	0.0	0.0	0.0	0.0	0.0	0.0	0.0	0.0	0.0	0.0				
	920	1.9900009948068929	0.0	0.0	0.0	1.0	2.0	1	1.9900000000000002	0.0	0.0	0.0	0.0	0.0	0.0	0.0	0.0	0.0	0.0	0.0	0.0				
	929	63.730000994801884	29.000000794563785	50.0	28.999999999999996	1.0	77.0	1	63.73	0.0	0.0	0.0	0.0	0.0	0.0	0.0	0.0	0.0	0.0	0.0	0.0				
	959	2.4900009951101416	1.0	1.0	1.0	1.0	3.0	1	2.49	0.0	0.0	0.0	0.0	0.0	0.0	0.0	0.0	0.0	0.0	0.0	0.0				
	968	0.7000009951736939	0.0	0.0	0.0	1.0	1.0	1	0.7	0.0	0.0	0.0	0.0	0.0	0.0	0.0	0.0	0.0	0.0	0.0	0.0				
	993	3.9800009952335276	1.0	1.0	1.0	1.0	5.0	1	3.9800000000000004	0.0	0.0	0.0	0.0	0.0	0.0	0.0	0.0	0.0	0.0	0.0	0.0				
	994	1.9900009952335307	1.0	1.0	1.0	1.0	2.0	1	1.9900000000000002	0.0	0.0	0.0	0.0	0.0	0.0	0.0	0.0	0.0	0.0	0.0	0.0				
	995	-9.929372445275385e-7	32.327733629584436	38.0	0.0	1.0	60.0	1	100.0	0.0	0.0	0.0	0.0	0.0	0.0	0.0	0.0	0.0	0.0	0.0	0.0				
	996	-9.918816187178147e-7	16.52064147113073	38.0	0.0	1.0	60.0	1	50.0	0.0	0.0	0.0	0.0	0.0	0.0	0.0	0.0	0.0	0.0	0.0	0.0				
	997	-9.929226242347897e-7	21.238815753677446	38.0	0.0	1.0	60.0	1	50.0	0.0	0.0	0.0	0.0	0.0	0.0	0.0	0.0	0.0	0.0	0.0	0.0				
	1004	4.280000995079361	3.0	3.0	3.0	1.0	5.0	1	4.28	0.0	0.0	0.0	0.0	0.0	0.0	0.0	0.0	0.0	0.0	0.0	0.0				
	1024	0.10000099513462286	0.0	0.0	0.0	1.0	0.0	1	0.1	0.0	0.0	0.0	0.0	0.0	0.0	0.0	0.0	0.0	0.0	0.0	0.0				
	1027	24.900000994911252	13.0	13.0	13.0	1.0	30.0	1	24.9	0.0	0.0	0.0	0.0	0.0	0.0	0.0	0.0	0.0	0.0	0.0	0.0				
	1028	2.990000994913363	3.0	3.0	3.0	1.0	4.0	1	2.99	0.0	0.0	0.0	0.0	0.0	0.0	0.0	0.0	0.0	0.0	0.0	0.0				
	1029	24.900000994908574	14.000000000000002	14.000000000000002	14.000000000000002	1.0	30.0	1	24.9	0.0	0.0	0.0	0.0	0.0	0.0	0.0	0.0	0.0	0.0	0.0	0.0				
	1053	59.76000099490517	13.410178969246347	53.0	0.0	1.0	72.0	1	59.760000000000005	0.0	0.0	0.0	0.0	0.0	0.0	0.0	0.0	0.0	0.0	0.0	0.0				
	1054	29.880000995046352	25.377926551002698	31.0	0.0	1.0	36.0	1	29.880000000000003	0.0	0.0	0.0	0.0	0.0	0.0	0.0	0.0	0.0	0.0	0.0	0.0				
	1105	7.970000995041351	10.0	10.0	10.0	1.0	10.0	1	7.969999999999999	0.0	0.0	0.0	0.0	0.0	0.0	0.0	0.0	0.0	0.0	0.0	0.0				
	1106	22.910000995039653	13.0	13.0	13.0	1.0	28.0	1	22.91	0.0	0.0	0.0	0.0	0.0	0.0	0.0	0.0	0.0	0.0	0.0	0.0				
	1107	10.56000099486922	3.0	3.0	3.0	1.0	13.0	1	10.56	0.0	0.0	0.0	0.0	0.0	0.0	0.0	0.0	0.0	0.0	0.0	0.0				
	1138	44.820000994822756	24.155178353953254	41.0	0.0	1.0	54.0	1	44.82	0.0	0.0	0.0	0.0	0.0	0.0	0.0	0.0	0.0	0.0	0.0	0.0				
	1140	-6.243589065589741e-7	33.36434226733552	199.0	-87.0	1.0	252.0	1	229.99999999999997	0.0	0.0	0.0	0.0	0.0	0.0	0.0	0.0	0.0	0.0	0.0	0.0				
	1141	-9.911746412067166e-7	43.45079897874612	190.0	-89.0	1.0	251.0	1	225.0	0.0	0.0	0.0	0.0	0.0	0.0	0.0	0.0	0.0	0.0	0.0	0.0				
	1175	37.84000099509122	20.0	20.0	20.0	1.0	45.0	1	37.84	0.0	0.0	0.0	0.0	0.0	0.0	0.0	0.0	0.0	0.0	0.0	0.0				
	1182	-9.936206152581035e-7	-4.77588083203763	125.0	-50.0	1.0	133.0	1	120.0	0.0	0.0	0.0	0.0	0.0	0.0	0.0	0.0	0.0	0.0	0.0	0.0				
	1183	120.0000011744679	-8.877126091348222	125.0	-50.0	1.0	133.0	1	120.0	0.0	0.0	0.0	0.0	0.0	0.0	0.0	0.0	0.0	0.0	0.0	0.0				
	1184	-9.91207617572207e-7	57.03200454560622	125.0	-50.0	1.0	133.0	1	120.0	0.0	0.0	0.0	0.0	0.0	0.0	0.0	0.0	0.0	0.0	0.0	0.0				
	1191	106.5600010605708	12.873260066676458	129.0	-47.0	1.0	128.0	1	106.56000000000002	0.0	0.0	0.0	0.0	0.0	0.0	0.0	0.0	0.0	0.0	0.0	0.0				
	1192	250.00000248099687	54.41509050930813	125.0	-50.0	1.0	123.0	1	250.0	0.0	0.0	0.0	0.0	0.0	0.0	0.0	0.0	0.0	0.0	0.0	0.0				
	1201	99.59000099487855	0.06992341705946782	90.0	0.0	1.0	120.0	1	99.59	0.0	0.0	0.0	0.0	0.0	0.0	0.0	0.0	0.0	0.0	0.0	0.0				
	1202	99.59000099487854	4.811357962510055	90.0	0.0	1.0	120.0	1	99.59	0.0	0.0	0.0	0.0	0.0	0.0	0.0	0.0	0.0	0.0	0.0	0.0				
	1203	99.59000099490365	4.380435439696939e-6	90.0	0.0	1.0	120.0	1	99.59	0.0	0.0	0.0	0.0	0.0	0.0	0.0	0.0	0.0	0.0	0.0	0.0				
	1232	51.7900009950366	1.7525211790144337e-5	41.0	0.0	1.0	62.0	1	51.790000000000006	0.0	0.0	0.0	0.0	0.0	0.0	0.0	0.0	0.0	0.0	0.0	0.0				
	1233	14.940000995073891	1.3582988382768033e-5	41.0	0.0	1.0	18.0	1	14.940000000000001	0.0	0.0	0.0	0.0	0.0	0.0	0.0	0.0	0.0	0.0	0.0	0.0				
	1244	18.920000995019297	20.0	20.0	20.0	1.0	23.0	1	18.92	0.0	0.0	0.0	0.0	0.0	0.0	0.0	0.0	0.0	0.0	0.0	0.0				
	1247	15.93000099504791	12.0	12.0	12.0	1.0	19.0	1	15.93	0.0	0.0	0.0	0.0	0.0	0.0	0.0	0.0	0.0	0.0	0.0	0.0				
	1250	197.19000196680213	30.87372898084827	151.0	0.0	1.0	237.0	1	197.19	0.0	0.0	0.0	0.0	0.0	0.0	0.0	0.0	0.0	0.0	0.0	0.0				
	1268	0.500000995019716	0.0	0.0	0.0	1.0	1.0	1	0.5	0.0	0.0	0.0	0.0	0.0	0.0	0.0	0.0	0.0	0.0	0.0	0.0				
	1316	1.0000009950982538	0.0	0.0	0.0	1.0	1.0	1	1.0	0.0	0.0	0.0	0.0	0.0	0.0	0.0	0.0	0.0	0.0	0.0	0.0				
	1325	1.3900009949130945	0.0	0.0	0.0	1.0	2.0	1	1.39	0.0	0.0	0.0	0.0	0.0	0.0	0.0	0.0	0.0	0.0	0.0	0.0				
	1349	1.49000099534248	0.0	0.0	0.0	1.0	2.0	1	1.49	0.0	0.0	0.0	0.0	0.0	0.0	0.0	0.0	0.0	0.0	0.0	0.0				
	1356	1.000000995049616	2.0	2.0	2.0	1.0	1.0	1	1.0	0.0	0.0	0.0	0.0	0.0	0.0	0.0	0.0	0.0	0.0	0.0	0.0				
	1359	0.8000009950834136	1.0	1.0	1.0	1.0	1.0	1	0.8	0.0	0.0	0.0	0.0	0.0	0.0	0.0	0.0	0.0	0.0	0.0	0.0				
	1393	12.750000995036487	-8.34083325231765e-7	11.0	0.0	1.0	15.0	1	12.75	0.0	0.0	0.0	0.0	0.0	0.0	0.0	0.0	0.0	0.0	0.0	0.0				
	1403	4.2800009949186135	1.0	1.0	1.0	1.0	5.0	1	4.28	0.0	0.0	0.0	0.0	0.0	0.0	0.0	0.0	0.0	0.0	0.0	0.0				
	1416	341.4732928607956	26.1605442380346	180.0	10.0	1.0	246.0	1	371.0	0.0	0.0	0.0	0.0	0.0	0.0	0.0	0.0	0.0	0.0	0.0	0.0				
	1417	-9.853916200849532e-7	11.991708190366666	120.0	5.0	1.0	123.0	1	120.0	0.0	0.0	0.0	0.0	0.0	0.0	0.0	0.0	0.0	0.0	0.0	0.0				
	1418	-9.887035896875974e-7	5.000001538556647	90.0	5.0	1.0	123.0	1	20.0	0.0	0.0	0.0	0.0	0.0	0.0	0.0	0.0	0.0	0.0	0.0	0.0				
	1426	-9.875705738939384e-7	26.999999963852044	68.0	27.0	1.0	106.0	1	495.0	0.0	0.0	0.0	0.0	0.0	0.0	0.0	0.0	0.0	0.0	0.0	0.0				
	1429	0.20000099501680416	0.0	0.0	0.0	1.0	0.0	1	0.2	0.0	0.0	0.0	0.0	0.0	0.0	0.0	0.0	0.0	0.0	0.0	0.0				
	1469	0.6000009950701694	0.0	0.0	0.0	1.0	1.0	1	0.6	0.0	0.0	0.0	0.0	0.0	0.0	0.0	0.0	0.0	0.0	0.0	0.0				
	1475	2.090000994992229	2.0	2.0	2.0	1.0	3.0	1	2.09	0.0	0.0	0.0	0.0	0.0	0.0	0.0	0.0	0.0	0.0	0.0	0.0				
	1504	31.17000099503693	2.0	2.0	2.0	1.0	37.0	1	31.17	0.0	0.0	0.0	0.0	0.0	0.0	0.0	0.0	0.0	0.0	0.0	0.0				
	1505	48.80000099501218	4.0	4.0	4.0	1.0	59.0	1	48.8	0.0	0.0	0.0	0.0	0.0	0.0	0.0	0.0	0.0	0.0	0.0	0.0				
	1514	2.2900009933762964	1.0	1.0	1.0	1.0	3.0	1	2.29	0.0	0.0	0.0	0.0	0.0	0.0	0.0	0.0	0.0	0.0	0.0	0.0				
	1534	0.30000099498374555	0.0	0.0	0.0	1.0	0.0	1	0.3	0.0	0.0	0.0	0.0	0.0	0.0	0.0	0.0	0.0	0.0	0.0	0.0				
	1536	-9.925569875902617e-7	34.82590519611795	190.0	-89.0	1.0	251.0	1	225.0	0.0	0.0	0.0	0.0	0.0	0.0	0.0	0.0	0.0	0.0	0.0	0.0				
	1537	225.00000222253664	34.164901729574694	202.99999999999997	-95.0	1.0	255.0	1	225.0	0.0	0.0	0.0	0.0	0.0	0.0	0.0	0.0	0.0	0.0	0.0	0.0				
	1538	-7.415000243590287e-7	23.93602068921779	190.0	-89.0	1.0	255.0	1	215.0	0.0	0.0	0.0	0.0	0.0	0.0	0.0	0.0	0.0	0.0	0.0	0.0				
	1542	8.960000995011008	3.0	3.0	3.0	1.0	11.0	1	8.96	0.0	0.0	0.0	0.0	0.0	0.0	0.0	0.0	0.0	0.0	0.0	0.0				
	1543	1.2000009949872823	0.0	0.0	0.0	1.0	1.0	1	1.2	0.0	0.0	0.0	0.0	0.0	0.0	0.0	0.0	0.0	0.0	0.0	0.0				
	1550	1.7900009949549465	1.0	1.0	1.0	1.0	2.0	1	1.79	0.0	0.0	0.0	0.0	0.0	0.0	0.0	0.0	0.0	0.0	0.0	0.0				
	1566	54.77000099501613	20.000004411602514	47.0	20.0	1.0	66.0	1	54.77000000000001	0.0	0.0	0.0	0.0	0.0	0.0	0.0	0.0	0.0	0.0	0.0	0.0				
	1587	63.740000995009716	27.0	27.0	27.0	1.0	77.0	1	63.739999999999995	0.0	0.0	0.0	0.0	0.0	0.0	0.0	0.0	0.0	0.0	0.0	0.0				
	1600	17.430000994859554	3.0	3.0	3.0	1.0	21.0	1	17.43	0.0	0.0	0.0	0.0	0.0	0.0	0.0	0.0	0.0	0.0	0.0	0.0				
	1602	-9.891904625196152e-7	6.350013449980472	90.0	0.0	1.0	144.0	1	120.0	0.0	0.0	0.0	0.0	0.0	0.0	0.0	0.0	0.0	0.0	0.0	0.0				
	1603	-9.783847827378094e-7	34.055351162822426	90.0	0.0	1.0	144.0	1	120.0	0.0	0.0	0.0	0.0	0.0	0.0	0.0	0.0	0.0	0.0	0.0	0.0				
	1609	0.30000099529978386	0.0	0.0	0.0	1.0	0.0	1	0.3	0.0	0.0	0.0	0.0	0.0	0.0	0.0	0.0	0.0	0.0	0.0	0.0				
	1617	2.0000009951544953	0.0	0.0	0.0	1.0	2.0	1	2.0	0.0	0.0	0.0	0.0	0.0	0.0	0.0	0.0	0.0	0.0	0.0	0.0				
	1620	1.600000995208397	0.0	0.0	0.0	1.0	2.0	1	1.6	0.0	0.0	0.0	0.0	0.0	0.0	0.0	0.0	0.0	0.0	0.0	0.0				
...
];

%% branch data
%    f_bus    t_bus    r    x    b    rateA    rateB    rateC    ratio    angle    status    angmin    angmax
mpc.branch = [
	16	1	0.00155	0.01169	0.0182	160.0	160.0	160.0	0	0	1	-60.0001403060998	60.0001403060998	65.43913125874829	-4.573298536846881	-65.37633994974968	3.118161048812611				
	355	1	0.00157	0.06612	0.0	160.0	160.0	160.0	1.0099	0.0	1	-60.0001403060998	60.0001403060998	-65.3128412990168	5.792384479677834	65.37633994974968	-3.118161048812611				
	17	2	0.00155	0.01169	0.0182	160.0	160.0	160.0	0	0	1	-60.0001403060998	60.0001403060998	59.11794238815533	-0.2504392072240854	-59.06514959174505	-1.2174081437985413				
	354	2	0.00157	0.06612	0.0	160.0	160.0	160.0	1.022	0.0	1	-60.0001403060998	60.0001403060998	-59.011654128919446	1.0355345326520262	59.06514959174505	1.2174081437985413				
	10	3	0.01068	0.07895	0.1226	274.0	274.0	274.0	0	0	1	-60.0001403060998	60.0001403060998	44.928308638747	-6.757313353438113	-44.727566236016806	-4.875371900856879				
	219	3	0.00165	0.06736	0.0	160.0	160.0	160.0	1.027	0.0	1	-60.0001403060998	60.0001403060998	-17.533818938345412	-8.656723207064289	17.539808259530126	8.901232707066395				
	220	3	0.00165	0.06736	0.0	160.0	160.0	160.0	0.9955	0.0	1	-60.0001403060998	60.0001403060998	-27.17606375329325	4.503268608821482	27.187757976486676	-4.025860806209516				
	7	4	0.01674	0.09711	0.14423	377.0	377.0	377.0	0	0	1	-60.0001403060998	60.0001403060998	-51.73124788587884	13.466568850319863	52.22081230961714	-25.88381384250635				
	11	4	0.00293	0.01599	0.02478	335.0	335.0	335.0	0	0	1	-60.0001403060998	60.0001403060998	42.986839983442515	-1.5292585265744614	-42.935262482807495	-0.7876018228652635				
	14	4	0.00442	0.03223	0.04985	463.99999999999994	463.99999999999994	463.99999999999994	0	0	1	-60.0001403060998	60.0001403060998	-28.144546323828283	-41.26097899430081	28.24386779519062	36.83311981030045				
	16	4	0.00888	0.06665	0.08896	377.0	377.0	377.0	0	0	1	-60.0001403060998	60.0001403060998	129.67293993574566	-6.912314513337024	-128.26426594202334	8.110452963108926				
	22	4	0.00783	0.043	0.04962	350.0	350.0	350.0	0	0	1	-60.0001403060998	60.0001403060998	-43.766960457649034	23.504254455143066	43.95847767179552	-27.68712136342813				
	245	4	0.00165	0.06901	0.0	160.0	160.0	160.0	1.0594	0.0	1	-60.0001403060998	60.0001403060998	-27.779075179273384	-13.288848063168931	27.79430044399283	13.925633225768577				
	246	4	0.00165	0.06901	0.0	160.0	160.0	160.0	1.0448	0.0	1	-60.0001403060998	60.0001403060998	-18.976073257801033	4.761486711826423	18.982070204234734	-4.510668970378212				
	5	6	0.00064	0.0305	0.0	400.0	400.0	400.0	1.0435	-0.6	1	-60.0001403060998	60.0001403060998	-135.43150722331757	-37.16777855431625	135.55946350125583	43.26569492480981				
	7	5	0.00525	0.03988	0.06195	381.0	381.0	381.0	0	0	1	-60.0001403060998	60.0001403060998	-23.153044703838614	-7.509297695713259	23.18025518090116	1.079581506408402				
	10	5	0.01459	0.11219	0.16553	381.0	381.0	381.0	0	0	1	-60.0001403060998	60.0001403060998	-71.53745490687069	3.0986761068133273	72.25223003412977	-15.381338557919385				
	309	5	0.00165	0.0686	0.0	160.0	160.0	160.0	1.0646	0.0	1	-60.0001403060998	60.0001403060998	-20.07733688040487	-33.65221217000286	20.10201615114333	34.67827154737165				
	309	5	0.00165	0.0686	0.0	160.0	160.0	160.0	1.0523	0.0	1	-60.0001403060998	60.0001403060998	-19.8865939522071	-16.358381222926326	19.89700585714329	16.791264058455585				
	6	8	0.00112	0.01329	0.34125	1316.0	1316.0	1316.0	0	0	1	-60.0001403060998	60.0001403060998	-11.34140687447768	-14.522073369665629	11.342913480552278	-20.012363216165674				
	6	9	0.00299	0.03675	0.9184	1427.0	1427.0	1427.0	0	0	1	-60.0001403060998	60.0001403060998	86.12092883590654	-73.85830577783507	-85.87987233779947	-16.92780323202559				
	15	6	0.00298	0.03417	0.93504	1427.0	1427.0	1427.0	0	0	1	-60.0001403060998	60.0001403060998	-46.89050358172301	-53.935908885975984	46.957135916511675	-39.6321130098072				
	31	6	0.0015	0.01506	0.4032	1385.0	1385.0	1385.0	0	0	1	-60.0001403060998	60.0001403060998	387.5925505290769	-76.0801893221534	-385.30168957935945	58.42110288845128				
	310	6	0.0015	0.06188	0.0	250.0	250.0	250.0	1.0613	0.0	1	-60.0001403060998	60.0001403060998	-127.75261890967893	-15.890692947273463	128.00556820016308	26.325694344046802				
	12	7	0.01211	0.08742	0.14017	381.0	381.0	381.0	0	0	1	-60.0001403060998	60.0001403060998	-15.46806584537553	-1.6042696229080895	15.498985119633335	-13.19216768998143				
	13	7	0.00205	0.01326	0.02243	335.0	335.0	335.0	0	0	1	-60.0001403060998	60.0001403060998	18.862146515576597	20.058717132388878	-18.846735287355365	-22.362452140556986				
	19	7	0.0057	0.0407	0.06021	323.0	323.0	323.0	0	0	1	-60.0001403060998	60.0001403060998	-23.33016584573331	18.21944319307708	23.38309680567166	-24.318013357288713				
	21	7	0.00093	0.00651	0.01113	160.0	160.0	160.0	0	0	1	-60.0001403060998	60.0001403060998	-42.23230564601436	22.324341709132366	42.25236407835192	-23.374191744966318				
	29	7	0.01269	0.07498	0.1302	362.0	362.0	362.0	0	0	1	-60.0001403060998	60.0001403060998	63.144285432779824	-3.785739284818613	-62.677608372153934	-7.489008949455315				
	321	7	0.00041	0.03368	0.0	250.0	250.0	250.0	1.0323	0.0	1	-60.0001403060998	60.0001403060998	-34.018228201208316	-22.895057843735785	34.02477854943392	23.43314498577936				
	322	7	0.00165	0.06775	0.0	160.0	160.0	160.0	1.0569	0.0	1	-60.0001403060998	60.0001403060998	-41.16500933097219	-57.879805475291576	41.24941169613593	61.345417741862796				
	8	18	0.00336	0.03977	1.02163	1316.0	1316.0	1316.0	0	0	1	-60.0001403060998	60.0001403060998	-11.342913480552278	20.012363216165674	11.517923449270821	-118.52609454834607				
	332	9	0.00087	0.05244	-0.02144	330.0	330.0	330.0	1.0781	0.0	1	-60.0001403060998	60.0001403060998	-85.81538592352992	-10.852268007801303	85.87987233779947	16.92780323202559				
	171	10	0.01409	0.10413	0.15972	463.99999999999994	463.99999999999994	463.99999999999994	0	0	1	-60.0001403060998	60.0001403060998	28.08909041575451	-9.933300508655247	-27.98576383486642	-6.4907598833607265				
	346	10	0.00124	0.06839	0.0	160.0	160.0	160.0	1.0054	0.0	1	-60.0001403060998	60.0001403060998	-29.544263207464116	0.681000243090684	29.554348614114446	-0.12475753275545653				
	347	10	0.00124	0.06839	0.0	160.0	160.0	160.0	1.024	0.0	1	-60.0001403060998	60.0001403060998	-18.309860520988934	-5.0925125501402055	18.314060504774556	5.324155204252074				
	16	11	0.0057	0.03952	0.07553	463.99999999999994	463.99999999999994	463.99999999999994	0	0	1	-60.0001403060998	60.0001403060998	200.82635545810822	-11.9611224277608	-198.65479579591366	19.048650000269614				
	17	11	0.0057	0.03952	0.07553	463.99999999999994	463.99999999999994	463.99999999999994	0	0	1	-60.0001403060998	60.0001403060998	-18.207563026091584	-30.786845854223593	18.26620024963386	23.353335098726152				
	111	11	0.01068	0.06196	0.09496	394.0	394.0	394.0	0	0	1	-60.0001403060998	60.0001403060998	-59.96561260454393	40.719623484405346	60.52349462389216	-47.65107011006787				
	352	11	0.00165	0.06901	0.0	160.0	160.0	160.0	1.0412	0.0	1	-60.0001403060998	60.0001403060998	-34.84452337243039	8.175661594776193	34.86447600003005	-7.3411580610468095				
	353	11	0.00165	0.06901	0.0	160.0	160.0	160.0	1.0559	0.0	1	-60.0001403060998	60.0001403060998	-41.98290692168437	-12.828051920457234	42.01378493891506	14.119501598693377				
	140	12	0.01465	0.10589	0.17085	463.99999999999994	463.99999999999994	463.99999999999994	0	0	1	-60.0001403060998	60.0001403060998	26.69529879151904	9.34090966614136	-26.555444092197018	-27.09178813029859				
	359	12	0.00155	0.06612	0.0	160.0	160.0	160.0	1.0395	0.0	1	-60.0001403060998	60.0001403060998	-30.969561363720192	-8.598219341137552	30.98463896214851	9.24140050764149				
	360	12	0.00157	0.06612	0.0	160.0	160.0	160.0	1.059	0.0	1	-60.0001403060998	60.0001403060998	-11.03156191011403	-19.146838520534725	11.03887097542404	19.454657245565187				
	29	13	0.01345	0.08114	0.14113	339.0	339.0	339.0	0	0	1	-60.0001403060998	60.0001403060998	55.38682321104127	-8.012747910626368	-55.00728120977267	-4.952857839517076				
	365	13	0.00165	0.06901	0.0	160.0	160.0	160.0	1.0312	0.0	1	-60.0001403060998	60.0001403060998	-14.33547908949613	-8.434504026683266	14.33977532843791	8.614190965696663				
	366	13	0.00165	0.06901	0.0	160.0	160.0	160.0	0.9872	0.0	1	-60.0001403060998	60.0001403060998	-21.789421356985912	24.386645401218885	21.805359365758164	-23.720050258568463				
	17	14	0.00384	0.02853	0.04588	463.99999999999994	463.99999999999994	463.99999999999994	0	0	1	-60.0001403060998	60.0001403060998	30.520023411594856	5.1980586108220885	-30.483035650037603	-9.616612268427913				
	367	14	0.00157	0.06798	0.0	160.0	160.0	160.0	1.0664	0.0	1	-60.0001403060998	60.0001403060998	-42.827023216067225	-17.55778356797509	42.86088064291385	19.0237885851934				
	368	14	0.00165	0.06901	0.0	160.0	160.0	160.0	1.0777	0.0	1	-60.0001403060998	60.0001403060998	-15.746259888625417	-30.99885483816515	15.766701330952035	31.853802677535313				
	18	15	0.00358	0.04262	1.0944	1662.0	1662.0	1662.0	0	0	1	-60.0001403060998	60.0001403060998	50.75419899972737	-111.70881393038441	-50.52602012534639	7.0766973650790055				
	15	165	0.00207	0.02474	0.664	831.0	831.0	831.0	0	0	1	-60.0001403060998	60.0001403060998	25.963242202926473	-12.451347920572543	-25.94034864427382	-53.62683587152658				
	374	15	0.0015	0.06188	0.0	250.0	250.0	250.0	1.1502	0.0	1	-60.0001403060998	60.0001403060998	-71.3245690952504	-54.000743533289906	71.45328150414294	59.310559441469515				
	16	18	0.00036	0.02519	0.0	500.0	500.0	500.0	1.0605	0.0	1	-60.0001403060998	60.0001403060998	243.1402553010733	-23.412915068726157	-242.91242037801166	39.355030935180615				
	16	73	0.00909	0.0624	0.11142	463.99999999999994	463.99999999999994	463.99999999999994	0	0	1	-60.0001403060998	60.0001403060998	50.737325234709104	-20.642819728900474	-50.498013537480446	10.414941250208294				
	17	18	0.00036	0.02519	0.0	500.0	500.0	500.0	1.0607	0.0	1	-60.0001403060998	60.0001403060998	-62.6650042085319	-86.20910741560228	62.709834412888995	89.3459764371454				
	17	74	0.00868	0.06405	0.09699	463.99999999999994	463.99999999999994	463.99999999999994	0	0	1	-60.0001403060998	60.0001403060998	-51.115399527636704	-29.015671141683956	51.385263777445054	20.854731398294934				
	20	18	0.00063	0.00749	0.39226	1427.0	1427.0	1427.0	0	0	1	-60.0001403060998	60.0001403060998	0.2961409437938213	36.97452879857214	-0.27574055959595034	-74.42850925341916				
	75	18	0.00219	0.02369	0.59584	1434.0	1434.0	1434.0	0	0	1	-60.0001403060998	60.0001403060998	-25.60881414162159	-21.452802777174167	25.62494709942277	-35.4501769290374				
	18	76	0.00137	0.01625	0.41184	1662.0	1662.0	1662.0	0	0	1	-60.0001403060998	60.0001403060998	37.88636965486184	-29.396059009653637	-37.86447246963067	-9.794604772353273				
	18	101	0.00231	0.02769	0.70144	1662.0	1662.0	1662.0	0	0	1	-60.0001403060998	60.0001403060998	-29.45511366840707	-91.69135390894162	29.55764833592581	24.615795804660177				
	124	19	0.01696	0.12366	0.19699	463.99999999999994	463.99999999999994	463.99999999999994	0	0	1	-60.0001403060998	60.0001403060998	21.269081737501104	1.6049027256969828	-21.17642760725344	-22.633770302623294				
	425	19	0.00165	0.06818	0.0	160.0	160.0	160.0	1.0241	0.0	1	-60.0001403060998	60.0001403060998	-44.476117293063865	-3.1550152407330736	44.506593452986756	4.4143271095462095				
	67	20	0.00331	0.03425	0.85888	831.0	831.0	831.0	0	0	1	-60.0001403060998	60.0001403060998	88.62065506370004	-35.63641102513519	-88.35254770590932	-44.880784727592726				
	447	20	0.00137	0.06119	-0.01504	250.0	250.0	250.0	1.0796	0.0	1	-60.0001403060998	60.0001403060998	-44.93464937210101	5.601721786022634	44.96352812201615	-2.8572662508886517				
	448	20	0.00137	0.06119	-0.01504	250.0	250.0	250.0	1.0923	0.0	1	-60.0001403060998	60.0001403060998	-43.065090080302916	-8.0802782024547	43.092878640099336	10.76352217990924				
	502	21	0.00165	0.07107	0.0	160.0	160.0	160.0	0.9922	0.0	1	-60.0001403060998	60.0001403060998	-42.197133550365	23.839299792648376	42.23230564601436	-22.324341709132366				
	112	22	0.00465	0.02618	0.02962	362.0	362.0	362.0	0	0	1	-60.0001403060998	60.0001403060998	-41.79622342206039	62.15125223134337	42.04384696402215	-63.94742895775578				
	526	22	0.00165	0.06901	0.0	160.0	160.0	160.0	1.0685	0.0	1	-60.0001403060998	60.0001403060998	-16.45645687357473	-37.49385204025513	16.483862182521563	38.64005832535857				
	527	22	0.00165	0.06901	0.0	160.0	160.0	160.0	1.0424	0.0	1	-60.0001403060998	60.0001403060998	14.764182652073885	-1.6594932687708144	-14.76074868889468	1.80311617725414				
	37	23	0.01163	0.07031	0.1058	394.0	394.0	394.0	0	0	1	-60.0001403060998	60.0001403060998	27.847212484694207	-5.489866906872566	-27.765408218256248	-5.646567285194552				
	46	23	0.00837	0.04868	0.07348	457.0	457.0	457.0	0	0	1	-60.0001403060998	60.0001403060998	-2.0762372874583246	-19.523713107187206	2.0953120506710254	11.638097718794345				
	53	23	0.01122	0.06558	0.09835	274.0	274.0	274.0	0	0	1	-60.0001403060998	60.0001403060998	18.87328707552482	-5.569147984917312	-18.836949231444926	-5.01706157327722				
	540	23	0.0014	0.0668	0.0	160.0	160.0	160.0	1.0182	0.0	1	-60.0001403060998	60.0001403060998	-44.48173092568576	2.182330874184268	44.507045399030154	-0.9744688603225721				
	54	24	0.00769	0.05727	0.08789	160.0	160.0	160.0	0	0	1	-60.0001403060998	60.0001403060998	15.881378869790982	-17.66129331753229	-15.852611631400704	8.058415899254053				
	545	24	0.00151	0.06715	0.0	160.0	160.0	160.0	1.0161	0.0	1	-60.0001403060998	60.0001403060998	-15.848359904995249	8.247491017217962	15.852611631400704	-8.058415899254053				
	41	25	0.00556	0.04145	0.0636	274.0	274.0	274.0	0	0	1	-60.0001403060998	60.0001403060998	41.21386596647108	-5.342246594577742	-41.12885335992898	-1.0939055112530893				
	53	25	0.00452	0.03368	0.05169	463.99999999999994	463.99999999999994	463.99999999999994	0	0	1	-60.0001403060998	60.0001403060998	-53.155447081113124	-10.543347089353663	53.27399506325832	5.714605161298405				
	54	25	0.00019	0.0014	0.00213	463.99999999999994	463.99999999999994	463.99999999999994	0	0	1	-60.0001403060998	60.0001403060998	45.59894000161717	15.305099371055853	-45.594976636927804	-15.512435354481378				
	564	25	0.00157	0.07808	0.0	160.0	160.0	160.0	1.0276	0.0	1	-60.0001403060998	60.0001403060998	-33.43233460767485	-10.021401024107046	33.44983493359847	10.89173570443606				
	38	26	0.00698	0.05196	0.07967	160.0	160.0	160.0	0	0	1	-60.0001403060998	60.0001403060998	48.245940475220294	-4.325323556592883	-48.09858879110759	-3.337486494405859				
	568	26	0.00149	0.06616	0.0	160.0	160.0	160.0	1.013	0.0	1	-60.0001403060998	60.0001403060998	-48.06699710148947	-1.934730665456203	48.09858879110759	3.337486494405859				
	28	27	0.0	0.0001	0.0	876.0	876.0	876.0	0	0	1	-60.0001403060998	60.0001403060998	60.42065825735439	4.3883613397269565	-60.42065825735439	-4.3849609410747				
	33	27	0.0024	0.01494	0.02253	160.0	160.0	160.0	0	0	1	-60.0001403060998	60.0001403060998	-56.41717067747275	-9.81157507416879	56.48995685802727	7.839140599398614				
	48	27	0.01213	0.06215	0.09371	362.0	362.0	362.0	0	0	1	-60.0001403060998	60.0001403060998	-39.61717907778919	3.0576696471801856	39.80100392471656	-12.228850871669062				
	27	74	0.01116	0.07231	0.10367	304.0	304.0	304.0	0	0	1	-60.0001403060998	60.0001403060998	-35.87030252538944	8.774671213345146	36.02470133681471	-18.900480873878827				
	47	28	0.00248	0.01798	0.02759	463.99999999999994	463.99999999999994	463.99999999999994	0	0	1	-60.0001403060998	60.0001403060998	-36.41252472660813	12.272306427809646	36.447246054470675	-15.00252815744845				
	28	88	0.01488	0.08161	0.1148	362.0	362.0	362.0	0	0	1	-60.0001403060998	60.0001403060998	-96.86790431182506	10.61416681772149	98.20056901694083	-15.738379948640805				
	30	29	0.0	0.0001	0.0	876.0	876.0	876.0	0	0	1	-60.0001403060998	60.0001403060998	-67.03987791638167	-35.130168908098966	67.03987791638167	35.13543847796411				
	29	32	0.00034	0.02097	0.0	500.0	500.0	500.0	1.0619	0.0	1	-60.0001403060998	60.0001403060998	-350.9672494773453	-75.05202102077736	351.4215117325036	103.06931364039234				
	45	29	0.00545	0.04021	0.06699	463.99999999999994	463.99999999999994	463.99999999999994	0	0	1	-60.0001403060998	60.0001403060998	-24.495696511391905	-8.539581577761398	24.5271854826923	1.511565647882616				
	48	29	0.00574	0.04283	0.06573	463.99999999999994	463.99999999999994	463.99999999999994	0	0	1	-60.0001403060998	60.0001403060998	-30.246806415963807	-8.686489850338932	30.296875059115102	1.9406270301314947				
	613	29	0.00157	0.06775	0.0	160.0	160.0	160.0	1.0016	0.0	1	-60.0001403060998	60.0001403060998	-96.14595930082557	-9.340487393288486	96.28320138135771	15.262876537270653				
	46	30	0.00545	0.04021	0.06699	463.99999999999994	463.99999999999994	463.99999999999994	0	0	1	-60.0001403060998	60.0001403060998	-24.2473165432584	-8.419092541387306	24.278134049355707	1.38617072392623				
	49	30	0.00707	0.04541	0.06931	362.0	362.0	362.0	0	0	1	-60.0001403060998	60.0001403060998	-28.41869455236525	-7.903849265641213	28.47274287248106	0.7439976609183019				
	32	31	0.0	0.0001	0.0	1593.0	1593.0	1593.0	0	0	1	-60.0001403060998	60.0001403060998	-556.2573227135118	-112.717694999657	556.2573227135118	113.03858841321448				
	39	31	0.00176	0.02144	0.57344	1385.0	1385.0	1385.0	0	0	1	-60.0001403060998	60.0001403060998	-44.55394994785164	7.179732725552195	44.611136729639775	-64.45839978199605				
	36	32	0.00167	0.0189	0.54176	498.00000000000006	498.00000000000006	498.00000000000006	0	0	1	-60.0001403060998	60.0001403060998	-204.11522274921938	-55.35710244170411	204.8358109810083	9.648381359264661				
...